data_0mil101_Fd-3m  hall_number: 526, V_con: 6
_audit_creation_date              2025-03-11
_audit_creation_method            'MOFbuilder_1.0'
_symmetry_space_group_name_H-M    'P1'
_symmetry_Int_Tables_number       1
_symmetry_cell_setting            triclinic
loop_
_symmetry_equiv_pos_as_xyz
  x,y,z
_cell_length_a                    100.0
_cell_length_b                    100.0
_cell_length_c                    100.0
_cell_angle_alpha                 90.0
_cell_angle_beta                  90.0
_cell_angle_gamma                 90.0
loop_
_atom_site_label
_atom_site_type_symbol
_atom_site_fract_x
_atom_site_fract_y
_atom_site_fract_z
V1    V   0.20033  0.20033  0.29433
V2    V   0.12533  0.37500  0.87500
V3    V   0.12500  0.37533  0.62500
V4    V   0.15833  0.34167  0.50000
V5    V   0.92000  0.92000  0.83000
V6    V   0.09167  0.90833  0.50000
V7    V   0.29967  0.29967  0.70567
V8    V   0.79967  0.79967  0.70567
V9    V   0.87467  0.62500  0.12500
V10   V   0.87500  0.62467  0.37500
V11   V   0.84167  0.65833  0.50000
V12   V   0.08000  0.08000  0.17000
V13   V   0.90833  0.09167  0.50000
V14   V   0.70033  0.70033  0.29433
V15   V   0.54967  0.04967  0.79433
V16   V   0.62467  0.87500  0.37500
V17   V   0.62500  0.87467  0.12500
V18   V   0.59167  0.90833  1.00000
V19   V   0.83000  0.33000  0.33000
V20   V   0.65833  0.34167  1.00000
V21   V   0.45033  0.95033  0.20567
V22   V   0.37533  0.12500  0.62500
V23   V   0.37500  0.12533  0.87500
V24   V   0.40833  0.09167  1.00000
V25   V   0.17000  0.67000  0.67000
V26   V   0.34167  0.65833  1.00000
V27   V   0.04967  0.70033  0.45567
V28   V   0.12467  0.87500  0.87500
V29   V   0.12500  0.87533  0.12500
V30   V   0.09167  0.84167  0.25000
V31   V   0.33000  0.42000  0.92000
V32   V   0.15833  0.40833  0.25000
V33   V   0.95033  0.79967  0.04433
V34   V   0.95033  0.29967  0.54433
V35   V   0.87533  0.12500  0.12500
V36   V   0.87500  0.12467  0.87500
V37   V   0.90833  0.15833  0.75000
V38   V   0.67000  0.58000  0.08000
V39   V   0.84167  0.59167  0.75000
V40   V   0.04967  0.20033  0.95567
V41   V   0.70033  0.54967  0.95567
V42   V   0.62533  0.37500  0.37500
V43   V   0.62500  0.37467  0.62500
V44   V   0.65833  0.40833  0.75000
V45   V   0.42000  0.83000  0.42000
V46   V   0.59167  0.84167  0.75000
V47   V   0.79967  0.45033  0.54433
V48   V   0.29967  0.45033  0.04433
V49   V   0.37467  0.62500  0.62500
V50   V   0.37500  0.62533  0.37500
V51   V   0.34167  0.59167  0.25000
V52   V   0.58000  0.17000  0.58000
V53   V   0.40833  0.15833  0.25000
V54   V   0.20033  0.54967  0.45567
V55   V   0.29433  0.20033  0.20033
V56   V   0.87500  0.12533  0.37500
V57   V   0.62500  0.12500  0.37533
V58   V   0.50000  0.15833  0.34167
V59   V   0.83000  0.92000  0.92000
V60   V   0.50000  0.09167  0.90833
V61   V   0.70567  0.29967  0.29967
V62   V   0.70567  0.79967  0.79967
V63   V   0.12500  0.87467  0.62500
V64   V   0.37500  0.87500  0.62467
V65   V   0.50000  0.84167  0.65833
V66   V   0.17000  0.08000  0.08000
V67   V   0.50000  0.90833  0.09167
V68   V   0.29433  0.70033  0.70033
V69   V   0.79433  0.54967  0.04967
V70   V   0.37500  0.62467  0.87500
V71   V   0.12500  0.62500  0.87467
V72   V   1.00000  0.59167  0.90833
V73   V   0.33000  0.83000  0.33000
V74   V   1.00000  0.65833  0.34167
V75   V   0.20567  0.45033  0.95033
V76   V   0.62500  0.37533  0.12500
V77   V   0.87500  0.37500  0.12533
V78   V   1.00000  0.40833  0.09167
V79   V   0.67000  0.17000  0.67000
V80   V   1.00000  0.34167  0.65833
V81   V   0.45567  0.04967  0.70033
V82   V   0.12500  0.12500  0.87533
V83   V   0.25000  0.09167  0.84167
V84   V   0.92000  0.33000  0.42000
V85   V   0.25000  0.15833  0.40833
V86   V   0.04433  0.95033  0.79967
V87   V   0.54433  0.95033  0.29967
V88   V   0.87500  0.87500  0.12467
V89   V   0.75000  0.90833  0.15833
V90   V   0.08000  0.67000  0.58000
V91   V   0.75000  0.84167  0.59167
V92   V   0.95567  0.04967  0.20033
V93   V   0.95567  0.70033  0.54967
V94   V   0.62500  0.62500  0.37467
V95   V   0.75000  0.65833  0.40833
V96   V   0.42000  0.42000  0.83000
V97   V   0.75000  0.59167  0.84167
V98   V   0.54433  0.79967  0.45033
V99   V   0.04433  0.29967  0.45033
V100  V   0.37500  0.37500  0.62533
V101  V   0.25000  0.34167  0.59167
V102  V   0.58000  0.58000  0.17000
V103  V   0.25000  0.40833  0.15833
V104  V   0.45567  0.20033  0.54967
V105  V   0.20033  0.29433  0.20033
V106  V   0.37500  0.87500  0.12533
V107  V   0.37533  0.62500  0.12500
V108  V   0.34167  0.50000  0.15833
V109  V   0.92000  0.83000  0.92000
V110  V   0.90833  0.50000  0.09167
V111  V   0.29967  0.70567  0.29967
V112  V   0.79967  0.70567  0.79967
V113  V   0.62500  0.12500  0.87467
V114  V   0.62467  0.37500  0.87500
V115  V   0.65833  0.50000  0.84167
V116  V   0.08000  0.17000  0.08000
V117  V   0.09167  0.50000  0.90833
V118  V   0.70033  0.29433  0.70033
V119  V   0.04967  0.79433  0.54967
V120  V   0.87500  0.37500  0.62467
V121  V   0.87467  0.12500  0.62500
V122  V   0.90833  1.00000  0.59167
V123  V   0.33000  0.33000  0.83000
V124  V   0.34167  1.00000  0.65833
V125  V   0.95033  0.20567  0.45033
V126  V   0.12500  0.62500  0.37533
V127  V   0.12533  0.87500  0.37500
V128  V   0.09167  1.00000  0.40833
V129  V   0.67000  0.67000  0.17000
V130  V   0.65833  1.00000  0.34167
V131  V   0.70033  0.45567  0.04967
V132  V   0.84167  0.25000  0.09167
V133  V   0.42000  0.92000  0.33000
V134  V   0.40833  0.25000  0.15833
V135  V   0.79967  0.04433  0.95033
V136  V   0.29967  0.54433  0.95033
V137  V   0.15833  0.75000  0.90833
V138  V   0.58000  0.08000  0.67000
V139  V   0.59167  0.75000  0.84167
V140  V   0.20033  0.95567  0.04967
V141  V   0.54967  0.95567  0.70033
V142  V   0.40833  0.75000  0.65833
V143  V   0.83000  0.42000  0.42000
V144  V   0.84167  0.75000  0.59167
V145  V   0.45033  0.54433  0.79967
V146  V   0.45033  0.04433  0.29967
V147  V   0.59167  0.25000  0.34167
V148  V   0.17000  0.58000  0.58000
V149  V   0.15833  0.25000  0.40833
V150  V   0.54967  0.45567  0.20033
V151  V   0.95033  0.45033  0.20567
V152  V   0.09167  0.40833  1.00000
V153  V   0.04967  0.54967  0.79433
V154  V   0.90833  0.59167  1.00000
V155  V   0.65833  0.84167  0.50000
V156  V   0.34167  0.15833  0.50000
V157  V   0.45033  0.29967  0.04433
V158  V   0.59167  0.34167  0.25000
V159  V   0.54967  0.20033  0.45567
V160  V   0.54967  0.70033  0.95567
V161  V   0.40833  0.65833  0.75000
V162  V   0.45033  0.79967  0.54433
V163  V   0.29967  0.95033  0.54433
V164  V   0.15833  0.90833  0.75000
V165  V   0.58000  0.67000  0.08000
V166  V   0.20033  0.04967  0.95567
V167  V   0.70033  0.04967  0.45567
V168  V   0.84167  0.09167  0.25000
V169  V   0.42000  0.33000  0.92000
V170  V   0.79967  0.95033  0.04433
V171  V   0.95033  0.54433  0.29967
V172  V   0.90833  0.75000  0.15833
V173  V   0.67000  0.08000  0.58000
V174  V   0.04967  0.95567  0.20033
V175  V   0.04967  0.45567  0.70033
V176  V   0.09167  0.25000  0.84167
V177  V   0.33000  0.92000  0.42000
V178  V   0.95033  0.04433  0.79967
V179  V   0.29967  0.04433  0.45033
V180  V   0.34167  0.25000  0.59167
V181  V   0.20033  0.45567  0.54967
V182  V   0.70033  0.95567  0.54967
V183  V   0.65833  0.75000  0.40833
V184  V   0.79967  0.54433  0.45033
V185  V   0.84167  0.50000  0.65833
V186  V   0.15833  0.50000  0.34167
V187  V   0.45033  0.20567  0.95033
V188  V   0.40833  1.00000  0.09167
V189  V   0.54967  0.79433  0.04967
V190  V   0.59167  1.00000  0.90833
V191  V   0.04433  0.45033  0.29967
V192  V   0.25000  0.59167  0.34167
V193  V   0.45567  0.54967  0.20033
V194  V   0.95567  0.54967  0.70033
V195  V   0.75000  0.40833  0.65833
V196  V   0.54433  0.45033  0.79967
V197  V   0.54433  0.29967  0.95033
V198  V   0.75000  0.15833  0.90833
V199  V   0.08000  0.58000  0.67000
V200  V   0.95567  0.20033  0.04967
V201  V   0.45567  0.70033  0.04967
V202  V   0.25000  0.84167  0.09167
V203  V   0.92000  0.42000  0.33000
V204  V   0.04433  0.79967  0.95033
V205  V   0.20567  0.95033  0.45033
V206  V   1.00000  0.09167  0.40833
V207  V   0.79433  0.04967  0.54967
V208  V   1.00000  0.90833  0.59167
V209  V   0.50000  0.65833  0.84167
V210  V   0.50000  0.34167  0.15833
V211  V   0.20033  0.70033  0.79433
V212  V   0.15833  0.84167  1.00000
V213  V   0.29967  0.79967  0.20567
V214  V   0.79967  0.29967  0.20567
V215  V   0.84167  0.15833  1.00000
V216  V   0.70033  0.20033  0.79433
V217  V   0.54967  0.54967  0.29433
V218  V   0.59167  0.40833  0.50000
V219  V   0.83000  0.83000  0.83000
V220  V   0.45033  0.45033  0.70567
V221  V   0.40833  0.59167  0.50000
V222  V   0.17000  0.17000  0.17000
V223  V   0.12467  0.37500  0.37500
V224  V   0.09167  0.34167  0.75000
V225  V   0.87533  0.62500  0.62500
V226  V   0.90833  0.65833  0.25000
V227  V   0.62533  0.87500  0.87500
V228  V   0.65833  0.90833  0.25000
V229  V   0.37467  0.12500  0.12500
V230  V   0.34167  0.09167  0.75000
V231  V   0.87500  0.62533  0.87500
V232  V   0.62500  0.62500  0.87533
V233  V   0.50000  0.59167  0.40833
V234  V   0.12500  0.37467  0.12500
V235  V   0.37500  0.37500  0.12467
V236  V   0.50000  0.40833  0.59167
V237  V   0.37500  0.12467  0.37500
V238  V   0.12500  0.12500  0.37467
V239  V   1.00000  0.15833  0.84167
V240  V   0.62500  0.87533  0.62500
V241  V   0.87500  0.87500  0.62533
V242  V   1.00000  0.84167  0.15833
V243  V   0.25000  0.65833  0.90833
V244  V   0.75000  0.34167  0.09167
V245  V   0.75000  0.09167  0.34167
V246  V   0.25000  0.90833  0.65833
V247  V   0.20033  0.79433  0.70033
V248  V   0.29967  0.20567  0.79967
V249  V   0.79967  0.20567  0.29967
V250  V   0.70033  0.79433  0.20033
V251  V   0.04967  0.29433  0.04967
V252  V   0.95033  0.70567  0.95033
V253  V   0.95033  0.95033  0.70567
V254  V   0.04967  0.04967  0.29433
V255  V   0.90833  0.25000  0.65833
V256  V   0.09167  0.75000  0.34167
V257  V   0.34167  0.75000  0.09167
V258  V   0.65833  0.25000  0.90833
V259  V   0.84167  1.00000  0.15833
V260  V   0.15833  1.00000  0.84167
V261  V   0.45033  0.70567  0.45033
V262  V   0.40833  0.50000  0.59167
V263  V   0.54967  0.29433  0.54967
V264  V   0.59167  0.50000  0.40833
V265  V   0.79433  0.20033  0.70033
V266  V   0.20567  0.29967  0.79967
V267  V   0.20567  0.79967  0.29967
V268  V   0.79433  0.70033  0.20033
V269  V   0.29433  0.54967  0.54967
V270  V   0.70567  0.45033  0.45033
V271  V   0.70567  0.95033  0.95033
V272  V   0.29433  0.04967  0.04967
E1    E   0.00270  0.00270  0.20030
E2    E   0.00270  0.04970  0.24730
E3    E   0.00270  0.20030  0.00270
E4    E   0.00270  0.24730  0.04970
E5    E   0.00270  0.50270  0.70030
E6    E   0.00270  0.54970  0.74730
E7    E   0.00270  0.70030  0.50270
E8    E   0.00270  0.74730  0.54970
E9    E   0.00270  0.00270  0.20030
E10   E   0.00270  0.04970  0.24730
E11   E   0.00270  0.20030  0.00270
E12   E   0.00270  0.24730  0.04970
E13   E   0.00270  0.50270  0.70030
E14   E   0.00270  0.54970  0.74730
E15   E   0.00270  0.70030  0.50270
E16   E   0.00270  0.74730  0.54970
E17   E   0.01780  0.56480  0.68520
E18   E   0.01780  0.68520  0.56480
E19   E   0.01780  0.06480  0.18520
E20   E   0.01780  0.18520  0.06480
E21   E   0.01780  0.06480  0.18520
E22   E   0.01780  0.18520  0.06480
E23   E   0.01780  0.56480  0.68520
E24   E   0.01780  0.68520  0.56480
E25   E   0.02480  0.07070  0.35130
E26   E   0.02480  0.17930  0.89870
E27   E   0.02480  0.35130  0.07070
E28   E   0.02480  0.39870  0.67930
E29   E   0.02480  0.57070  0.85130
E30   E   0.02480  0.67930  0.39870
E31   E   0.02480  0.85130  0.57070
E32   E   0.02480  0.89870  0.17930
E33   E   0.02480  0.39870  0.67930
E34   E   0.02480  0.89870  0.17930
E35   E   0.02480  0.07070  0.35130
E36   E   0.02480  0.17930  0.89870
E37   E   0.02480  0.35130  0.07070
E38   E   0.02480  0.57070  0.85130
E39   E   0.02480  0.67930  0.39870
E40   E   0.02480  0.85130  0.57070
E41   E   0.04580  0.34170  0.70420
E42   E   0.04580  0.84170  0.20420
E43   E   0.04580  0.34170  0.70420
E44   E   0.04580  0.84170  0.20420
E45   E   0.04580  0.04580  0.40830
E46   E   0.04580  0.20420  0.84170
E47   E   0.04580  0.40830  0.04580
E48   E   0.04580  0.70420  0.34170
E49   E   0.04580  0.54580  0.90830
E50   E   0.04580  0.90830  0.54580
E51   E   0.04580  0.04580  0.40830
E52   E   0.04580  0.20420  0.84170
E53   E   0.04580  0.40830  0.04580
E54   E   0.04580  0.54580  0.90830
E55   E   0.04580  0.70420  0.34170
E56   E   0.04580  0.90830  0.54580
E57   E   0.04970  0.00270  0.24730
E58   E   0.04970  0.00270  0.24730
E59   E   0.04970  0.24730  0.00270
E60   E   0.04970  0.24730  0.00270
E61   E   0.04970  0.50270  0.74730
E62   E   0.04970  0.74730  0.50270
E63   E   0.06250  0.35850  0.64170
E64   E   0.06250  0.85850  0.14170
E65   E   0.06250  0.39150  0.10830
E66   E   0.06250  0.10830  0.39150
E67   E   0.06250  0.14170  0.85850
E68   E   0.06250  0.35850  0.64170
E69   E   0.06250  0.39150  0.10830
E70   E   0.06250  0.60830  0.89150
E71   E   0.06250  0.64170  0.35850
E72   E   0.06250  0.85850  0.14170
E73   E   0.06250  0.89150  0.60830
E74   E   0.06250  0.14170  0.85850
E75   E   0.06250  0.60830  0.89150
E76   E   0.06250  0.64170  0.35850
E77   E   0.06250  0.89150  0.60830
E78   E   0.06480  0.51780  0.68520
E79   E   0.06480  0.56480  0.73220
E80   E   0.06480  0.68520  0.51780
E81   E   0.06480  0.73220  0.56480
E82   E   0.06480  0.01780  0.18520
E83   E   0.06480  0.01780  0.18520
E84   E   0.06480  0.06480  0.23220
E85   E   0.06480  0.18520  0.01780
E86   E   0.06480  0.18520  0.01780
E87   E   0.06480  0.23220  0.06480
E88   E   0.07070  0.02480  0.35130
E89   E   0.07070  0.02480  0.35130
E90   E   0.07070  0.22520  0.89870
E91   E   0.07070  0.35130  0.02480
E92   E   0.07070  0.35130  0.02480
E93   E   0.07070  0.39870  0.72520
E94   E   0.07070  0.52480  0.85130
E95   E   0.07070  0.72520  0.39870
E96   E   0.07070  0.89870  0.22520
E97   E   0.07070  0.85130  0.52480
E98   E   0.08000  0.62500  0.62500
E99   E   0.08000  0.12500  0.12500
E100  E   0.08450  0.33730  0.41270
E101  E   0.08450  0.41270  0.33730
E102  E   0.08450  0.83730  0.91270
E103  E   0.08450  0.91270  0.83730
E104  E   0.08730  0.33450  0.08730
E105  E   0.08730  0.08730  0.33450
E106  E   0.08730  0.16270  0.91550
E107  E   0.08730  0.41550  0.66270
E108  E   0.08730  0.58730  0.83450
E109  E   0.08730  0.66270  0.41550
E110  E   0.08730  0.83450  0.58730
E111  E   0.08730  0.91550  0.16270
E112  E   0.09170  0.29580  0.79580
E113  E   0.09170  0.79580  0.29580
E114  E   0.09170  0.45420  0.95420
E115  E   0.09170  0.95420  0.45420
E116  E   0.10130  0.27480  0.42930
E117  E   0.10130  0.32070  0.47520
E118  E   0.10130  0.42930  0.27480
E119  E   0.10130  0.47520  0.32070
E120  E   0.10130  0.77480  0.92930
E121  E   0.10130  0.82070  0.97520
E122  E   0.10130  0.92930  0.77480
E123  E   0.10130  0.97520  0.82070
E124  E   0.10830  0.06250  0.39150
E125  E   0.10830  0.39150  0.06250
E126  E   0.10830  0.18750  0.85850
E127  E   0.10830  0.35850  0.68750
E128  E   0.10830  0.56250  0.89150
E129  E   0.10830  0.68750  0.35850
E130  E   0.10830  0.85850  0.18750
E131  E   0.10830  0.89150  0.56250
E132  E   0.10850  0.31250  0.85830
E133  E   0.10850  0.35830  0.81250
E134  E   0.10850  0.39170  0.93750
E135  E   0.10850  0.43750  0.89170
E136  E   0.10850  0.81250  0.35830
E137  E   0.10850  0.85830  0.31250
E138  E   0.10850  0.89170  0.43750
E139  E   0.10850  0.93750  0.39170
E140  E   0.12500  0.08000  0.12500
E141  E   0.12500  0.12500  0.08000
E142  E   0.12500  0.12500  0.17000
E143  E   0.12500  0.17000  0.12500
E144  E   0.12500  0.58000  0.62500
E145  E   0.12500  0.62500  0.58000
E146  E   0.12500  0.62500  0.67000
E147  E   0.12500  0.67000  0.62500
E148  E   0.14150  0.31250  0.39170
E149  E   0.14150  0.35830  0.43750
E150  E   0.14150  0.39170  0.31250
E151  E   0.14150  0.43750  0.35830
E152  E   0.14150  0.81250  0.89170
E153  E   0.14150  0.85830  0.93750
E154  E   0.14150  0.89170  0.81250
E155  E   0.14150  0.93750  0.85830
E156  E   0.14170  0.39150  0.18750
E157  E   0.14170  0.18750  0.39150
E158  E   0.14170  0.06250  0.85850
E159  E   0.14170  0.06250  0.85850
E160  E   0.14170  0.35850  0.56250
E161  E   0.14170  0.56250  0.35850
E162  E   0.14170  0.68750  0.89150
E163  E   0.14170  0.85850  0.06250
E164  E   0.14170  0.89150  0.68750
E165  E   0.14870  0.27480  0.82070
E166  E   0.14870  0.32070  0.77480
E167  E   0.14870  0.77480  0.32070
E168  E   0.14870  0.82070  0.27480
E169  E   0.14870  0.42930  0.97520
E170  E   0.14870  0.47520  0.92930
E171  E   0.14870  0.92930  0.47520
E172  E   0.14870  0.97520  0.42930
E173  E   0.15830  0.29580  0.45420
E174  E   0.15830  0.45420  0.29580
E175  E   0.15830  0.79580  0.95420
E176  E   0.15830  0.95420  0.79580
E177  E   0.16270  0.16270  0.33450
E178  E   0.16270  0.33450  0.16270
E179  E   0.16270  0.66270  0.83450
E180  E   0.16270  0.83450  0.66270
E181  E   0.16270  0.08730  0.91550
E182  E   0.16270  0.41550  0.58730
E183  E   0.16270  0.58730  0.41550
E184  E   0.16270  0.91550  0.08730
E185  E   0.16550  0.33730  0.83730
E186  E   0.16550  0.83730  0.33730
E187  E   0.16550  0.41270  0.91270
E188  E   0.16550  0.91270  0.41270
E189  E   0.17000  0.12500  0.12500
E190  E   0.17000  0.62500  0.62500
E191  E   0.17930  0.72520  0.85130
E192  E   0.17930  0.85130  0.72520
E193  E   0.17930  0.02480  0.89870
E194  E   0.17930  0.02480  0.89870
E195  E   0.17930  0.22520  0.35130
E196  E   0.17930  0.35130  0.22520
E197  E   0.17930  0.39870  0.52480
E198  E   0.17930  0.52480  0.39870
E199  E   0.17930  0.89870  0.02480
E200  E   0.17930  0.89870  0.02480
E201  E   0.18520  0.01780  0.06480
E202  E   0.18520  0.01780  0.06480
E203  E   0.18520  0.06480  0.01780
E204  E   0.18520  0.06480  0.01780
E205  E   0.18520  0.18520  0.23220
E206  E   0.18520  0.23220  0.18520
E207  E   0.18520  0.51780  0.56480
E208  E   0.18520  0.56480  0.51780
E209  E   0.18520  0.68520  0.73220
E210  E   0.18520  0.73220  0.68520
E211  E   0.18750  0.10830  0.85850
E212  E   0.18750  0.35850  0.60830
E213  E   0.18750  0.60830  0.35850
E214  E   0.18750  0.64170  0.89150
E215  E   0.18750  0.85850  0.10830
E216  E   0.18750  0.89150  0.64170
E217  E   0.18750  0.14170  0.39150
E218  E   0.18750  0.39150  0.14170
E219  E   0.20030  0.74730  0.74730
E220  E   0.20030  0.00270  0.00270
E221  E   0.20030  0.00270  0.00270
E222  E   0.20030  0.24730  0.24730
E223  E   0.20030  0.50270  0.50270
E224  E   0.20420  0.04580  0.84170
E225  E   0.20420  0.04580  0.84170
E226  E   0.20420  0.34170  0.54580
E227  E   0.20420  0.54580  0.34170
E228  E   0.20420  0.70420  0.90830
E229  E   0.20420  0.84170  0.04580
E230  E   0.20420  0.84170  0.04580
E231  E   0.20420  0.90830  0.70420
E232  E   0.20420  0.20420  0.40830
E233  E   0.20420  0.40830  0.20420
E234  E   0.22520  0.67930  0.85130
E235  E   0.22520  0.07070  0.89870
E236  E   0.22520  0.39870  0.57070
E237  E   0.22520  0.57070  0.39870
E238  E   0.22520  0.85130  0.67930
E239  E   0.22520  0.89870  0.07070
E240  E   0.22520  0.17930  0.35130
E241  E   0.22520  0.35130  0.17930
E242  E   0.23220  0.06480  0.06480
E243  E   0.23220  0.18520  0.18520
E244  E   0.23220  0.56480  0.56480
E245  E   0.23220  0.68520  0.68520
E246  E   0.24730  0.00270  0.04970
E247  E   0.24730  0.00270  0.04970
E248  E   0.24730  0.04970  0.00270
E249  E   0.24730  0.04970  0.00270
E250  E   0.24730  0.20030  0.24730
E251  E   0.24730  0.24730  0.20030
E252  E   0.24730  0.70030  0.74730
E253  E   0.24730  0.74730  0.70030
E254  E   0.24730  0.50270  0.54970
E255  E   0.24730  0.54970  0.50270
E256  E   0.25270  0.25270  0.79970
E257  E   0.25270  0.29970  0.75270
E258  E   0.25270  0.49730  0.95030
E259  E   0.25270  0.75270  0.29970
E260  E   0.25270  0.79970  0.25270
E261  E   0.25270  0.95030  0.49730
E262  E   0.25270  0.45030  0.99730
E263  E   0.25270  0.45030  0.99730
E264  E   0.25270  0.99730  0.45030
E265  E   0.25270  0.99730  0.45030
E266  E   0.26780  0.31480  0.81480
E267  E   0.26780  0.81480  0.31480
E268  E   0.26780  0.43520  0.93520
E269  E   0.26780  0.93520  0.43520
E270  E   0.27480  0.60130  0.92930
E271  E   0.27480  0.14870  0.82070
E272  E   0.27480  0.32070  0.64870
E273  E   0.27480  0.64870  0.32070
E274  E   0.27480  0.82070  0.14870
E275  E   0.27480  0.92930  0.60130
E276  E   0.27480  0.10130  0.42930
E277  E   0.27480  0.42930  0.10130
E278  E   0.29580  0.59170  0.29580
E279  E   0.29580  0.65830  0.95420
E280  E   0.29580  0.09170  0.79580
E281  E   0.29580  0.15830  0.45420
E282  E   0.29580  0.29580  0.59170
E283  E   0.29580  0.45420  0.15830
E284  E   0.29580  0.79580  0.09170
E285  E   0.29580  0.95420  0.65830
E286  E   0.29970  0.25270  0.75270
E287  E   0.29970  0.49730  0.99730
E288  E   0.29970  0.49730  0.99730
E289  E   0.29970  0.75270  0.25270
E290  E   0.29970  0.99730  0.49730
E291  E   0.29970  0.99730  0.49730
E292  E   0.31250  0.35830  0.60850
E293  E   0.31250  0.60850  0.35830
E294  E   0.31250  0.64150  0.89170
E295  E   0.31250  0.89170  0.64150
E296  E   0.31250  0.10850  0.85830
E297  E   0.31250  0.14150  0.39170
E298  E   0.31250  0.39170  0.14150
E299  E   0.31250  0.85830  0.10850
E300  E   0.31480  0.26780  0.81480
E301  E   0.31480  0.31480  0.76780
E302  E   0.31480  0.48220  0.93520
E303  E   0.31480  0.76780  0.31480
E304  E   0.31480  0.81480  0.26780
E305  E   0.31480  0.93520  0.48220
E306  E   0.31480  0.43520  0.98220
E307  E   0.31480  0.98220  0.43520
E308  E   0.31480  0.98220  0.43520
E309  E   0.32070  0.14870  0.77480
E310  E   0.32070  0.27480  0.64870
E311  E   0.32070  0.60130  0.97520
E312  E   0.32070  0.64870  0.27480
E313  E   0.32070  0.77480  0.14870
E314  E   0.32070  0.97520  0.60130
E315  E   0.32070  0.10130  0.47520
E316  E   0.32070  0.47520  0.10130
E317  E   0.33000  0.37500  0.87500
E318  E   0.33000  0.87500  0.37500
E319  E   0.33450  0.08730  0.08730
E320  E   0.33450  0.16270  0.16270
E321  E   0.33450  0.58730  0.58730
E322  E   0.33450  0.66270  0.66270
E323  E   0.33730  0.08450  0.41270
E324  E   0.33730  0.16550  0.83730
E325  E   0.33730  0.33730  0.66550
E326  E   0.33730  0.41270  0.08450
E327  E   0.33730  0.58450  0.91270
E328  E   0.33730  0.66550  0.33730
E329  E   0.33730  0.83730  0.16550
E330  E   0.33730  0.91270  0.58450
E331  E   0.34170  0.04580  0.70420
E332  E   0.34170  0.04580  0.70420
E333  E   0.34170  0.20420  0.54580
E334  E   0.34170  0.54580  0.20420
E335  E   0.34170  0.70420  0.04580
E336  E   0.34170  0.70420  0.04580
E337  E   0.35130  0.02480  0.07070
E338  E   0.35130  0.02480  0.07070
E339  E   0.35130  0.07070  0.02480
E340  E   0.35130  0.07070  0.02480
E341  E   0.35130  0.17930  0.22520
E342  E   0.35130  0.22520  0.17930
E343  E   0.35130  0.52480  0.57070
E344  E   0.35130  0.57070  0.52480
E345  E   0.35130  0.67930  0.72520
E346  E   0.35130  0.72520  0.67930
E347  E   0.35830  0.14150  0.43750
E348  E   0.35830  0.31250  0.60850
E349  E   0.35830  0.43750  0.14150
E350  E   0.35830  0.60850  0.31250
E351  E   0.35830  0.64150  0.93750
E352  E   0.35830  0.93750  0.64150
E353  E   0.35830  0.10850  0.81250
E354  E   0.35830  0.81250  0.10850
E355  E   0.35850  0.06250  0.64170
E356  E   0.35850  0.06250  0.64170
E357  E   0.35850  0.10830  0.68750
E358  E   0.35850  0.14170  0.56250
E359  E   0.35850  0.18750  0.60830
E360  E   0.35850  0.56250  0.14170
E361  E   0.35850  0.60830  0.18750
E362  E   0.35850  0.64170  0.06250
E363  E   0.35850  0.64170  0.06250
E364  E   0.35850  0.68750  0.10830
E365  E   0.37500  0.33000  0.87500
E366  E   0.37500  0.37500  0.83000
E367  E   0.37500  0.37500  0.92000
E368  E   0.37500  0.42000  0.87500
E369  E   0.37500  0.83000  0.37500
E370  E   0.37500  0.87500  0.33000
E371  E   0.37500  0.87500  0.42000
E372  E   0.37500  0.92000  0.37500
E373  E   0.39150  0.56250  0.60830
E374  E   0.39150  0.60830  0.56250
E375  E   0.39150  0.64170  0.68750
E376  E   0.39150  0.68750  0.64170
E377  E   0.39150  0.06250  0.10830
E378  E   0.39150  0.06250  0.10830
E379  E   0.39150  0.10830  0.06250
E380  E   0.39150  0.14170  0.18750
E381  E   0.39150  0.18750  0.14170
E382  E   0.39170  0.43750  0.60850
E383  E   0.39170  0.60850  0.43750
E384  E   0.39170  0.10850  0.93750
E385  E   0.39170  0.14150  0.31250
E386  E   0.39170  0.31250  0.14150
E387  E   0.39170  0.64150  0.81250
E388  E   0.39170  0.81250  0.64150
E389  E   0.39170  0.93750  0.10850
E390  E   0.39870  0.17930  0.52480
E391  E   0.39870  0.22520  0.57070
E392  E   0.39870  0.52480  0.17930
E393  E   0.39870  0.57070  0.22520
E394  E   0.39870  0.02480  0.67930
E395  E   0.39870  0.02480  0.67930
E396  E   0.39870  0.07070  0.72520
E397  E   0.39870  0.67930  0.02480
E398  E   0.39870  0.67930  0.02480
E399  E   0.39870  0.72520  0.07070
E400  E   0.40830  0.54580  0.54580
E401  E   0.40830  0.04580  0.04580
E402  E   0.40830  0.04580  0.04580
E403  E   0.40830  0.20420  0.20420
E404  E   0.40830  0.70420  0.70420
E405  E   0.41270  0.08450  0.33730
E406  E   0.41270  0.33730  0.08450
E407  E   0.41270  0.41270  0.66550
E408  E   0.41270  0.58450  0.83730
E409  E   0.41270  0.66550  0.41270
E410  E   0.41270  0.83730  0.58450
E411  E   0.41270  0.16550  0.91270
E412  E   0.41270  0.91270  0.16550
E413  E   0.41550  0.08730  0.66270
E414  E   0.41550  0.16270  0.58730
E415  E   0.41550  0.58730  0.16270
E416  E   0.41550  0.66270  0.08730
E417  E   0.42000  0.37500  0.87500
E418  E   0.42000  0.87500  0.37500
E419  E   0.42930  0.10130  0.27480
E420  E   0.42930  0.14870  0.97520
E421  E   0.42930  0.27480  0.10130
E422  E   0.42930  0.47520  0.64870
E423  E   0.42930  0.60130  0.77480
E424  E   0.42930  0.64870  0.47520
E425  E   0.42930  0.77480  0.60130
E426  E   0.42930  0.97520  0.14870
E427  E   0.43520  0.26780  0.93520
E428  E   0.43520  0.31480  0.98220
E429  E   0.43520  0.43520  0.76780
E430  E   0.43520  0.48220  0.81480
E431  E   0.43520  0.76780  0.43520
E432  E   0.43520  0.81480  0.48220
E433  E   0.43520  0.93520  0.26780
E434  E   0.43520  0.98220  0.31480
E435  E   0.43750  0.39170  0.60850
E436  E   0.43750  0.60850  0.39170
E437  E   0.43750  0.10850  0.89170
E438  E   0.43750  0.14150  0.35830
E439  E   0.43750  0.35830  0.14150
E440  E   0.43750  0.89170  0.10850
E441  E   0.43750  0.64150  0.85830
E442  E   0.43750  0.85830  0.64150
E443  E   0.45030  0.49730  0.75270
E444  E   0.45030  0.75270  0.49730
E445  E   0.45030  0.25270  0.99730
E446  E   0.45030  0.25270  0.99730
E447  E   0.45030  0.99730  0.25270
E448  E   0.45030  0.99730  0.25270
E449  E   0.45420  0.45420  0.59170
E450  E   0.45420  0.59170  0.45420
E451  E   0.45420  0.09170  0.95420
E452  E   0.45420  0.15830  0.29580
E453  E   0.45420  0.29580  0.15830
E454  E   0.45420  0.65830  0.79580
E455  E   0.45420  0.79580  0.65830
E456  E   0.45420  0.95420  0.09170
E457  E   0.47520  0.10130  0.32070
E458  E   0.47520  0.14870  0.92930
E459  E   0.47520  0.32070  0.10130
E460  E   0.47520  0.42930  0.64870
E461  E   0.47520  0.64870  0.42930
E462  E   0.47520  0.92930  0.14870
E463  E   0.47520  0.60130  0.82070
E464  E   0.47520  0.82070  0.60130
E465  E   0.48220  0.31480  0.93520
E466  E   0.48220  0.43520  0.81480
E467  E   0.48220  0.81480  0.43520
E468  E   0.48220  0.93520  0.31480
E469  E   0.49730  0.25270  0.95030
E470  E   0.49730  0.29970  0.99730
E471  E   0.49730  0.29970  0.99730
E472  E   0.49730  0.49730  0.79970
E473  E   0.49730  0.79970  0.49730
E474  E   0.49730  0.95030  0.25270
E475  E   0.49730  0.99730  0.29970
E476  E   0.49730  0.99730  0.29970
E477  E   0.49730  0.45030  0.75270
E478  E   0.49730  0.75270  0.45030
E479  E   0.50270  0.20030  0.50270
E480  E   0.50270  0.24730  0.54970
E481  E   0.50270  0.50270  0.20030
E482  E   0.50270  0.54970  0.24730
E483  E   0.50270  0.00270  0.70030
E484  E   0.50270  0.00270  0.70030
E485  E   0.50270  0.70030  0.00270
E486  E   0.50270  0.70030  0.00270
E487  E   0.50270  0.04970  0.74730
E488  E   0.50270  0.74730  0.04970
E489  E   0.51780  0.06480  0.68520
E490  E   0.51780  0.18520  0.56480
E491  E   0.51780  0.56480  0.18520
E492  E   0.51780  0.68520  0.06480
E493  E   0.52480  0.35130  0.57070
E494  E   0.52480  0.57070  0.35130
E495  E   0.52480  0.07070  0.85130
E496  E   0.52480  0.17930  0.39870
E497  E   0.52480  0.39870  0.17930
E498  E   0.52480  0.85130  0.07070
E499  E   0.52480  0.67930  0.89870
E500  E   0.52480  0.89870  0.67930
E501  E   0.54580  0.04580  0.90830
E502  E   0.54580  0.04580  0.90830
E503  E   0.54580  0.20420  0.34170
E504  E   0.54580  0.34170  0.20420
E505  E   0.54580  0.40830  0.54580
E506  E   0.54580  0.54580  0.40830
E507  E   0.54580  0.90830  0.04580
E508  E   0.54580  0.90830  0.04580
E509  E   0.54580  0.70420  0.84170
E510  E   0.54580  0.84170  0.70420
E511  E   0.54970  0.24730  0.50270
E512  E   0.54970  0.50270  0.24730
E513  E   0.54970  0.00270  0.74730
E514  E   0.54970  0.00270  0.74730
E515  E   0.54970  0.74730  0.00270
E516  E   0.54970  0.74730  0.00270
E517  E   0.56250  0.14170  0.35850
E518  E   0.56250  0.35850  0.14170
E519  E   0.56250  0.10830  0.89150
E520  E   0.56250  0.39150  0.60830
E521  E   0.56250  0.60830  0.39150
E522  E   0.56250  0.89150  0.10830
E523  E   0.56250  0.64170  0.85850
E524  E   0.56250  0.85850  0.64170
E525  E   0.56480  0.01780  0.68520
E526  E   0.56480  0.01780  0.68520
E527  E   0.56480  0.18520  0.51780
E528  E   0.56480  0.23220  0.56480
E529  E   0.56480  0.51780  0.18520
E530  E   0.56480  0.56480  0.23220
E531  E   0.56480  0.68520  0.01780
E532  E   0.56480  0.68520  0.01780
E533  E   0.56480  0.06480  0.73220
E534  E   0.56480  0.73220  0.06480
E535  E   0.57070  0.22520  0.39870
E536  E   0.57070  0.35130  0.52480
E537  E   0.57070  0.39870  0.22520
E538  E   0.57070  0.52480  0.35130
E539  E   0.57070  0.02480  0.85130
E540  E   0.57070  0.02480  0.85130
E541  E   0.57070  0.72520  0.89870
E542  E   0.57070  0.85130  0.02480
E543  E   0.57070  0.85130  0.02480
E544  E   0.57070  0.89870  0.72520
E545  E   0.58000  0.12500  0.62500
E546  E   0.58000  0.62500  0.12500
E547  E   0.58450  0.33730  0.91270
E548  E   0.58450  0.41270  0.83730
E549  E   0.58450  0.83730  0.41270
E550  E   0.58450  0.91270  0.33730
E551  E   0.58730  0.16270  0.41550
E552  E   0.58730  0.41550  0.16270
E553  E   0.58730  0.08730  0.83450
E554  E   0.58730  0.33450  0.58730
E555  E   0.58730  0.58730  0.33450
E556  E   0.58730  0.66270  0.91550
E557  E   0.58730  0.83450  0.08730
E558  E   0.58730  0.91550  0.66270
E559  E   0.59170  0.95420  0.95420
E560  E   0.59170  0.29580  0.29580
E561  E   0.59170  0.45420  0.45420
E562  E   0.59170  0.79580  0.79580
E563  E   0.60130  0.27480  0.92930
E564  E   0.60130  0.32070  0.97520
E565  E   0.60130  0.47520  0.82070
E566  E   0.60130  0.82070  0.47520
E567  E   0.60130  0.92930  0.27480
E568  E   0.60130  0.97520  0.32070
E569  E   0.60130  0.42930  0.77480
E570  E   0.60130  0.77480  0.42930
E571  E   0.60830  0.06250  0.89150
E572  E   0.60830  0.06250  0.89150
E573  E   0.60830  0.18750  0.35850
E574  E   0.60830  0.35850  0.18750
E575  E   0.60830  0.39150  0.56250
E576  E   0.60830  0.56250  0.39150
E577  E   0.60830  0.89150  0.06250
E578  E   0.60830  0.68750  0.85850
E579  E   0.60830  0.85850  0.68750
E580  E   0.60850  0.31250  0.35830
E581  E   0.60850  0.35830  0.31250
E582  E   0.60850  0.39170  0.43750
E583  E   0.60850  0.43750  0.39170
E584  E   0.60850  0.81250  0.85830
E585  E   0.60850  0.89170  0.93750
E586  E   0.60850  0.93750  0.89170
E587  E   0.60850  0.85830  0.81250
E588  E   0.62500  0.08000  0.62500
E589  E   0.62500  0.12500  0.58000
E590  E   0.62500  0.12500  0.67000
E591  E   0.62500  0.17000  0.62500
E592  E   0.62500  0.58000  0.12500
E593  E   0.62500  0.62500  0.08000
E594  E   0.62500  0.62500  0.17000
E595  E   0.62500  0.67000  0.12500
E596  E   0.64150  0.31250  0.89170
E597  E   0.64150  0.35830  0.93750
E598  E   0.64150  0.43750  0.85830
E599  E   0.64150  0.85830  0.43750
E600  E   0.64150  0.89170  0.31250
E601  E   0.64150  0.93750  0.35830
E602  E   0.64150  0.39170  0.81250
E603  E   0.64150  0.81250  0.39170
E604  E   0.64170  0.06250  0.35850
E605  E   0.64170  0.06250  0.35850
E606  E   0.64170  0.18750  0.89150
E607  E   0.64170  0.35850  0.06250
E608  E   0.64170  0.89150  0.18750
E609  E   0.64170  0.56250  0.85850
E610  E   0.64170  0.39150  0.68750
E611  E   0.64170  0.68750  0.39150
E612  E   0.64170  0.85850  0.56250
E613  E   0.64870  0.92930  0.97520
E614  E   0.64870  0.97520  0.92930
E615  E   0.64870  0.27480  0.32070
E616  E   0.64870  0.32070  0.27480
E617  E   0.64870  0.42930  0.47520
E618  E   0.64870  0.47520  0.42930
E619  E   0.64870  0.77480  0.82070
E620  E   0.64870  0.82070  0.77480
E621  E   0.65830  0.95420  0.29580
E622  E   0.65830  0.29580  0.95420
E623  E   0.65830  0.45420  0.79580
E624  E   0.65830  0.79580  0.45420
E625  E   0.66270  0.08730  0.41550
E626  E   0.66270  0.41550  0.08730
E627  E   0.66270  0.16270  0.83450
E628  E   0.66270  0.33450  0.66270
E629  E   0.66270  0.58730  0.91550
E630  E   0.66270  0.66270  0.33450
E631  E   0.66270  0.83450  0.16270
E632  E   0.66270  0.91550  0.58730
E633  E   0.66550  0.33730  0.33730
E634  E   0.66550  0.41270  0.41270
E635  E   0.66550  0.91270  0.91270
E636  E   0.66550  0.83730  0.83730
E637  E   0.67000  0.12500  0.62500
E638  E   0.67000  0.62500  0.12500
E639  E   0.67930  0.02480  0.39870
E640  E   0.67930  0.02480  0.39870
E641  E   0.67930  0.22520  0.85130
E642  E   0.67930  0.35130  0.72520
E643  E   0.67930  0.39870  0.02480
E644  E   0.67930  0.39870  0.02480
E645  E   0.67930  0.52480  0.89870
E646  E   0.67930  0.72520  0.35130
E647  E   0.67930  0.85130  0.22520
E648  E   0.67930  0.89870  0.52480
E649  E   0.68520  0.01780  0.56480
E650  E   0.68520  0.01780  0.56480
E651  E   0.68520  0.06480  0.51780
E652  E   0.68520  0.18520  0.73220
E653  E   0.68520  0.23220  0.68520
E654  E   0.68520  0.51780  0.06480
E655  E   0.68520  0.56480  0.01780
E656  E   0.68520  0.56480  0.01780
E657  E   0.68520  0.68520  0.23220
E658  E   0.68520  0.73220  0.18520
E659  E   0.68750  0.10830  0.35850
E660  E   0.68750  0.14170  0.89150
E661  E   0.68750  0.35850  0.10830
E662  E   0.68750  0.39150  0.64170
E663  E   0.68750  0.60830  0.85850
E664  E   0.68750  0.64170  0.39150
E665  E   0.68750  0.89150  0.14170
E666  E   0.68750  0.85850  0.60830
E667  E   0.70030  0.00270  0.50270
E668  E   0.70030  0.00270  0.50270
E669  E   0.70030  0.24730  0.74730
E670  E   0.70030  0.50270  0.00270
E671  E   0.70030  0.50270  0.00270
E672  E   0.70030  0.74730  0.24730
E673  E   0.70420  0.04580  0.34170
E674  E   0.70420  0.04580  0.34170
E675  E   0.70420  0.20420  0.90830
E676  E   0.70420  0.90830  0.20420
E677  E   0.70420  0.34170  0.04580
E678  E   0.70420  0.34170  0.04580
E679  E   0.70420  0.54580  0.84170
E680  E   0.70420  0.84170  0.54580
E681  E   0.70420  0.40830  0.70420
E682  E   0.70420  0.70420  0.40830
E683  E   0.72520  0.17930  0.85130
E684  E   0.72520  0.85130  0.17930
E685  E   0.72520  0.07070  0.39870
E686  E   0.72520  0.35130  0.67930
E687  E   0.72520  0.39870  0.07070
E688  E   0.72520  0.57070  0.89870
E689  E   0.72520  0.67930  0.35130
E690  E   0.72520  0.89870  0.57070
E691  E   0.73220  0.06480  0.56480
E692  E   0.73220  0.18520  0.68520
E693  E   0.73220  0.56480  0.06480
E694  E   0.73220  0.68520  0.18520
E695  E   0.74730  0.00270  0.54970
E696  E   0.74730  0.00270  0.54970
E697  E   0.74730  0.04970  0.50270
E698  E   0.74730  0.20030  0.74730
E699  E   0.74730  0.24730  0.70030
E700  E   0.74730  0.50270  0.04970
E701  E   0.74730  0.54970  0.00270
E702  E   0.74730  0.54970  0.00270
E703  E   0.74730  0.70030  0.24730
E704  E   0.74730  0.74730  0.20030
E705  E   0.75270  0.95030  0.99730
E706  E   0.75270  0.95030  0.99730
E707  E   0.75270  0.99730  0.95030
E708  E   0.75270  0.99730  0.95030
E709  E   0.75270  0.25270  0.29970
E710  E   0.75270  0.29970  0.25270
E711  E   0.75270  0.45030  0.49730
E712  E   0.75270  0.49730  0.45030
E713  E   0.75270  0.75270  0.79970
E714  E   0.75270  0.79970  0.75270
E715  E   0.76780  0.93520  0.93520
E716  E   0.76780  0.31480  0.31480
E717  E   0.76780  0.43520  0.43520
E718  E   0.76780  0.81480  0.81480
E719  E   0.77480  0.10130  0.92930
E720  E   0.77480  0.92930  0.10130
E721  E   0.77480  0.14870  0.32070
E722  E   0.77480  0.32070  0.14870
E723  E   0.77480  0.42930  0.60130
E724  E   0.77480  0.60130  0.42930
E725  E   0.77480  0.64870  0.82070
E726  E   0.77480  0.82070  0.64870
E727  E   0.79580  0.15830  0.95420
E728  E   0.79580  0.95420  0.15830
E729  E   0.79580  0.09170  0.29580
E730  E   0.79580  0.29580  0.09170
E731  E   0.79580  0.45420  0.65830
E732  E   0.79580  0.59170  0.79580
E733  E   0.79580  0.65830  0.45420
E734  E   0.79580  0.79580  0.59170
E735  E   0.79970  0.99730  0.99730
E736  E   0.79970  0.99730  0.99730
E737  E   0.79970  0.25270  0.25270
E738  E   0.79970  0.49730  0.49730
E739  E   0.79970  0.75270  0.75270
E740  E   0.81250  0.14150  0.89170
E741  E   0.81250  0.89170  0.14150
E742  E   0.81250  0.10850  0.35830
E743  E   0.81250  0.35830  0.10850
E744  E   0.81250  0.39170  0.64150
E745  E   0.81250  0.60850  0.85830
E746  E   0.81250  0.64150  0.39170
E747  E   0.81250  0.85830  0.60850
E748  E   0.81480  0.93520  0.98220
E749  E   0.81480  0.98220  0.93520
E750  E   0.81480  0.98220  0.93520
E751  E   0.81480  0.26780  0.31480
E752  E   0.81480  0.31480  0.26780
E753  E   0.81480  0.43520  0.48220
E754  E   0.81480  0.48220  0.43520
E755  E   0.81480  0.76780  0.81480
E756  E   0.81480  0.81480  0.76780
E757  E   0.82070  0.10130  0.97520
E758  E   0.82070  0.97520  0.10130
E759  E   0.82070  0.14870  0.27480
E760  E   0.82070  0.27480  0.14870
E761  E   0.82070  0.47520  0.60130
E762  E   0.82070  0.60130  0.47520
E763  E   0.82070  0.64870  0.77480
E764  E   0.82070  0.77480  0.64870
E765  E   0.83000  0.37500  0.37500
E766  E   0.83000  0.87500  0.87500
E767  E   0.83450  0.08730  0.58730
E768  E   0.83450  0.16270  0.66270
E769  E   0.83450  0.58730  0.08730
E770  E   0.83450  0.66270  0.16270
E771  E   0.83730  0.08450  0.91270
E772  E   0.83730  0.91270  0.08450
E773  E   0.83730  0.16550  0.33730
E774  E   0.83730  0.33730  0.16550
E775  E   0.83730  0.41270  0.58450
E776  E   0.83730  0.58450  0.41270
E777  E   0.83730  0.66550  0.83730
E778  E   0.83730  0.83730  0.66550
E779  E   0.84170  0.04580  0.20420
E780  E   0.84170  0.04580  0.20420
E781  E   0.84170  0.20420  0.04580
E782  E   0.84170  0.20420  0.04580
E783  E   0.84170  0.54580  0.70420
E784  E   0.84170  0.70420  0.54580
E785  E   0.85130  0.02480  0.57070
E786  E   0.85130  0.02480  0.57070
E787  E   0.85130  0.07070  0.52480
E788  E   0.85130  0.17930  0.72520
E789  E   0.85130  0.22520  0.67930
E790  E   0.85130  0.52480  0.07070
E791  E   0.85130  0.57070  0.02480
E792  E   0.85130  0.57070  0.02480
E793  E   0.85130  0.67930  0.22520
E794  E   0.85130  0.72520  0.17930
E795  E   0.85830  0.10850  0.31250
E796  E   0.85830  0.14150  0.93750
E797  E   0.85830  0.31250  0.10850
E798  E   0.85830  0.43750  0.64150
E799  E   0.85830  0.60850  0.81250
E800  E   0.85830  0.64150  0.43750
E801  E   0.85830  0.81250  0.60850
E802  E   0.85830  0.93750  0.14150
E803  E   0.85850  0.06250  0.14170
E804  E   0.85850  0.06250  0.14170
E805  E   0.85850  0.10830  0.18750
E806  E   0.85850  0.14170  0.06250
E807  E   0.85850  0.18750  0.10830
E808  E   0.85850  0.56250  0.64170
E809  E   0.85850  0.60830  0.68750
E810  E   0.85850  0.64170  0.56250
E811  E   0.85850  0.68750  0.60830
E812  E   0.87500  0.33000  0.37500
E813  E   0.87500  0.37500  0.33000
E814  E   0.87500  0.37500  0.42000
E815  E   0.87500  0.42000  0.37500
E816  E   0.87500  0.83000  0.87500
E817  E   0.87500  0.87500  0.83000
E818  E   0.87500  0.87500  0.92000
E819  E   0.87500  0.92000  0.87500
E820  E   0.89150  0.06250  0.60830
E821  E   0.89150  0.06250  0.60830
E822  E   0.89150  0.10830  0.56250
E823  E   0.89150  0.14170  0.68750
E824  E   0.89150  0.18750  0.64170
E825  E   0.89150  0.56250  0.10830
E826  E   0.89150  0.60830  0.06250
E827  E   0.89150  0.64170  0.18750
E828  E   0.89150  0.68750  0.14170
E829  E   0.89170  0.10850  0.43750
E830  E   0.89170  0.14150  0.81250
E831  E   0.89170  0.31250  0.64150
E832  E   0.89170  0.43750  0.10850
E833  E   0.89170  0.60850  0.93750
E834  E   0.89170  0.64150  0.31250
E835  E   0.89170  0.81250  0.14150
E836  E   0.89170  0.93750  0.60850
E837  E   0.89870  0.02480  0.17930
E838  E   0.89870  0.02480  0.17930
E839  E   0.89870  0.07070  0.22520
E840  E   0.89870  0.17930  0.02480
E841  E   0.89870  0.17930  0.02480
E842  E   0.89870  0.22520  0.07070
E843  E   0.89870  0.52480  0.67930
E844  E   0.89870  0.57070  0.72520
E845  E   0.89870  0.67930  0.52480
E846  E   0.89870  0.72520  0.57070
E847  E   0.90830  0.04580  0.54580
E848  E   0.90830  0.04580  0.54580
E849  E   0.90830  0.20420  0.70420
E850  E   0.90830  0.54580  0.04580
E851  E   0.90830  0.54580  0.04580
E852  E   0.90830  0.70420  0.20420
E853  E   0.91270  0.08450  0.83730
E854  E   0.91270  0.16550  0.41270
E855  E   0.91270  0.33730  0.58450
E856  E   0.91270  0.41270  0.16550
E857  E   0.91270  0.58450  0.33730
E858  E   0.91270  0.66550  0.91270
E859  E   0.91270  0.83730  0.08450
E860  E   0.91270  0.91270  0.66550
E861  E   0.91550  0.08730  0.16270
E862  E   0.91550  0.16270  0.08730
E863  E   0.91550  0.58730  0.66270
E864  E   0.91550  0.66270  0.58730
E865  E   0.92000  0.37500  0.37500
E866  E   0.92000  0.87500  0.87500
E867  E   0.92930  0.64870  0.97520
E868  E   0.92930  0.97520  0.64870
E869  E   0.92930  0.10130  0.77480
E870  E   0.92930  0.14870  0.47520
E871  E   0.92930  0.27480  0.60130
E872  E   0.92930  0.47520  0.14870
E873  E   0.92930  0.60130  0.27480
E874  E   0.92930  0.77480  0.10130
E875  E   0.93520  0.76780  0.93520
E876  E   0.93520  0.93520  0.76780
E877  E   0.93520  0.26780  0.43520
E878  E   0.93520  0.31480  0.48220
E879  E   0.93520  0.43520  0.26780
E880  E   0.93520  0.48220  0.31480
E881  E   0.93520  0.81480  0.98220
E882  E   0.93520  0.98220  0.81480
E883  E   0.93520  0.98220  0.81480
E884  E   0.93750  0.35830  0.64150
E885  E   0.93750  0.85830  0.14150
E886  E   0.93750  0.10850  0.39170
E887  E   0.93750  0.14150  0.85830
E888  E   0.93750  0.39170  0.10850
E889  E   0.93750  0.60850  0.89170
E890  E   0.93750  0.64150  0.35830
E891  E   0.93750  0.89170  0.60850
E892  E   0.95030  0.25270  0.49730
E893  E   0.95030  0.49730  0.25270
E894  E   0.95030  0.75270  0.99730
E895  E   0.95030  0.75270  0.99730
E896  E   0.95030  0.99730  0.75270
E897  E   0.95030  0.99730  0.75270
E898  E   0.95420  0.09170  0.45420
E899  E   0.95420  0.15830  0.79580
E900  E   0.95420  0.29580  0.65830
E901  E   0.95420  0.45420  0.09170
E902  E   0.95420  0.59170  0.95420
E903  E   0.95420  0.65830  0.29580
E904  E   0.95420  0.79580  0.15830
E905  E   0.95420  0.95420  0.59170
E906  E   0.97520  0.32070  0.60130
E907  E   0.97520  0.64870  0.92930
E908  E   0.97520  0.82070  0.10130
E909  E   0.97520  0.92930  0.64870
E910  E   0.97520  0.10130  0.82070
E911  E   0.97520  0.14870  0.42930
E912  E   0.97520  0.42930  0.14870
E913  E   0.97520  0.60130  0.32070
E914  E   0.98220  0.31480  0.43520
E915  E   0.98220  0.43520  0.31480
E916  E   0.98220  0.81480  0.93520
E917  E   0.98220  0.93520  0.81480
E918  E   0.98220  0.31480  0.43520
E919  E   0.98220  0.43520  0.31480
E920  E   0.98220  0.81480  0.93520
E921  E   0.98220  0.93520  0.81480
E922  E   0.99730  0.75270  0.95030
E923  E   0.99730  0.95030  0.75270
E924  E   0.99730  0.25270  0.45030
E925  E   0.99730  0.29970  0.49730
E926  E   0.99730  0.45030  0.25270
E927  E   0.99730  0.49730  0.29970
E928  E   0.99730  0.79970  0.99730
E929  E   0.99730  0.99730  0.79970
E930  E   0.99730  0.25270  0.45030
E931  E   0.99730  0.29970  0.49730
E932  E   0.99730  0.45030  0.25270
E933  E   0.99730  0.49730  0.29970
E934  E   0.99730  0.79970  0.99730
E935  E   0.99730  0.99730  0.79970
loop_
