data_spn_Fd-3m:2  hall_number: 526, V_con: 6, EC_con: 3
_audit_creation_date              2025-03-05
_audit_creation_method            'MOFbuilder_1.0'
_symmetry_space_group_name_H-M    'P1'
_symmetry_Int_Tables_number       1
_symmetry_cell_setting            triclinic
loop_
_symmetry_equiv_pos_as_xyz
  x,y,z
_cell_length_a                    48.9898
_cell_length_b                    48.9898
_cell_length_c                    48.9898
_cell_angle_alpha                 90.0
_cell_angle_beta                  90.0
_cell_angle_gamma                 90.0
loop_
_atom_site_label
_atom_site_type_symbol
_atom_site_fract_x
_atom_site_fract_y
_atom_site_fract_z
V1    V   0.00000  0.00000  0.00000
V2    V   0.00000  0.25000  0.25000
V3    V   0.00000  0.50000  0.50000
V4    V   0.00000  0.75000  0.75000
V5    V   0.25000  0.00000  0.25000
V6    V   0.25000  0.25000  0.00000
V7    V   0.25000  0.50000  0.75000
V8    V   0.25000  0.75000  0.50000
V9    V   0.50000  0.00000  0.50000
V10   V   0.50000  0.25000  0.75000
V11   V   0.50000  0.50000  0.00000
V12   V   0.50000  0.75000  0.25000
V13   V   0.75000  0.00000  0.75000
V14   V   0.75000  0.25000  0.50000
V15   V   0.75000  0.50000  0.25000
V16   V   0.75000  0.75000  0.00000
EC1    EC   0.08333  0.08333  0.16667
EC2    EC   0.08333  0.16667  0.08333
EC3    EC   0.08333  0.58333  0.66667
EC4    EC   0.08333  0.66667  0.58333
EC5    EC   0.08333  0.08333  0.16667
EC6    EC   0.08333  0.08333  0.16667
EC7    EC   0.08333  0.16667  0.08333
EC8    EC   0.08333  0.16667  0.08333
EC9    EC   0.08333  0.58333  0.66667
EC10   EC   0.08333  0.66667  0.58333
EC11   EC   0.16667  0.08333  0.08333
EC12   EC   0.16667  0.08333  0.08333
EC13   EC   0.16667  0.16667  0.16667
EC14   EC   0.16667  0.16667  0.16667
EC15   EC   0.16667  0.58333  0.58333
EC16   EC   0.16667  0.66667  0.66667
EC17   EC   0.16667  0.08333  0.08333
EC18   EC   0.16667  0.16667  0.16667
EC19   EC   0.16667  0.58333  0.58333
EC20   EC   0.16667  0.66667  0.66667
EC21   EC   0.33333  0.33333  0.83333
EC22   EC   0.33333  0.41667  0.91667
EC23   EC   0.33333  0.83333  0.33333
EC24   EC   0.33333  0.91667  0.41667
EC25   EC   0.41667  0.33333  0.91667
EC26   EC   0.41667  0.41667  0.83333
EC27   EC   0.41667  0.83333  0.41667
EC28   EC   0.41667  0.91667  0.33333
EC29   EC   0.58333  0.08333  0.66667
EC30   EC   0.58333  0.08333  0.66667
EC31   EC   0.58333  0.16667  0.58333
EC32   EC   0.58333  0.16667  0.58333
EC33   EC   0.58333  0.58333  0.16667
EC34   EC   0.58333  0.58333  0.16667
EC35   EC   0.58333  0.66667  0.08333
EC36   EC   0.58333  0.66667  0.08333
EC37   EC   0.66667  0.08333  0.58333
EC38   EC   0.66667  0.08333  0.58333
EC39   EC   0.66667  0.16667  0.66667
EC40   EC   0.66667  0.16667  0.66667
EC41   EC   0.66667  0.58333  0.08333
EC42   EC   0.66667  0.58333  0.08333
EC43   EC   0.66667  0.66667  0.16667
EC44   EC   0.66667  0.66667  0.16667
EC45   EC   0.83333  0.33333  0.33333
EC46   EC   0.83333  0.41667  0.41667
EC47   EC   0.83333  0.83333  0.83333
EC48   EC   0.83333  0.91667  0.91667
EC49   EC   0.91667  0.33333  0.41667
EC50   EC   0.91667  0.41667  0.33333
EC51   EC   0.91667  0.83333  0.91667
EC52   EC   0.91667  0.91667  0.83333
E1    E   0.04167  0.04167  0.08333
E2    E   0.04167  0.08333  0.04167
E3    E   0.04167  0.16667  0.20833
E4    E   0.04167  0.20833  0.16667
E5    E   0.04167  0.54167  0.58333
E6    E   0.04167  0.58333  0.54167
E7    E   0.04167  0.66667  0.70833
E8    E   0.04167  0.70833  0.66667
E9    E   0.04167  0.04167  0.08333
E10   E   0.04167  0.08333  0.04167
E11   E   0.04167  0.16667  0.20833
E12   E   0.04167  0.20833  0.16667
E13   E   0.04167  0.54167  0.58333
E14   E   0.04167  0.58333  0.54167
E15   E   0.04167  0.66667  0.70833
E16   E   0.04167  0.70833  0.66667
E17   E   0.08333  0.04167  0.04167
E18   E   0.08333  0.04167  0.04167
E19   E   0.08333  0.20833  0.20833
E20   E   0.08333  0.20833  0.20833
E21   E   0.08333  0.54167  0.54167
E22   E   0.08333  0.54167  0.54167
E23   E   0.08333  0.70833  0.70833
E24   E   0.08333  0.70833  0.70833
E25   E   0.16667  0.04167  0.20833
E26   E   0.16667  0.04167  0.20833
E27   E   0.16667  0.20833  0.04167
E28   E   0.16667  0.20833  0.04167
E29   E   0.16667  0.54167  0.70833
E30   E   0.16667  0.54167  0.70833
E31   E   0.16667  0.70833  0.54167
E32   E   0.16667  0.70833  0.54167
E33   E   0.20833  0.04167  0.16667
E34   E   0.20833  0.08333  0.20833
E35   E   0.20833  0.16667  0.04167
E36   E   0.20833  0.20833  0.08333
E37   E   0.20833  0.54167  0.66667
E38   E   0.20833  0.58333  0.70833
E39   E   0.20833  0.66667  0.54167
E40   E   0.20833  0.70833  0.58333
E41   E   0.20833  0.04167  0.16667
E42   E   0.20833  0.08333  0.20833
E43   E   0.20833  0.16667  0.04167
E44   E   0.20833  0.20833  0.08333
E45   E   0.20833  0.54167  0.66667
E46   E   0.20833  0.58333  0.70833
E47   E   0.20833  0.66667  0.54167
E48   E   0.20833  0.70833  0.58333
E49   E   0.29167  0.29167  0.91667
E50   E   0.29167  0.33333  0.95833
E51   E   0.29167  0.41667  0.79167
E52   E   0.29167  0.45833  0.83333
E53   E   0.29167  0.79167  0.41667
E54   E   0.29167  0.83333  0.45833
E55   E   0.29167  0.91667  0.29167
E56   E   0.29167  0.95833  0.33333
E57   E   0.29167  0.29167  0.91667
E58   E   0.29167  0.33333  0.95833
E59   E   0.29167  0.41667  0.79167
E60   E   0.29167  0.45833  0.83333
E61   E   0.29167  0.79167  0.41667
E62   E   0.29167  0.83333  0.45833
E63   E   0.29167  0.91667  0.29167
E64   E   0.29167  0.95833  0.33333
E65   E   0.33333  0.29167  0.95833
E66   E   0.33333  0.29167  0.95833
E67   E   0.33333  0.45833  0.79167
E68   E   0.33333  0.45833  0.79167
E69   E   0.33333  0.79167  0.45833
E70   E   0.33333  0.79167  0.45833
E71   E   0.33333  0.95833  0.29167
E72   E   0.33333  0.95833  0.29167
E73   E   0.41667  0.29167  0.79167
E74   E   0.41667  0.29167  0.79167
E75   E   0.41667  0.45833  0.95833
E76   E   0.41667  0.45833  0.95833
E77   E   0.41667  0.79167  0.29167
E78   E   0.41667  0.79167  0.29167
E79   E   0.41667  0.95833  0.45833
E80   E   0.41667  0.95833  0.45833
E81   E   0.45833  0.29167  0.83333
E82   E   0.45833  0.33333  0.79167
E83   E   0.45833  0.41667  0.95833
E84   E   0.45833  0.45833  0.91667
E85   E   0.45833  0.79167  0.33333
E86   E   0.45833  0.83333  0.29167
E87   E   0.45833  0.91667  0.45833
E88   E   0.45833  0.95833  0.41667
E89   E   0.45833  0.29167  0.83333
E90   E   0.45833  0.33333  0.79167
E91   E   0.45833  0.41667  0.95833
E92   E   0.45833  0.45833  0.91667
E93   E   0.45833  0.79167  0.33333
E94   E   0.45833  0.83333  0.29167
E95   E   0.45833  0.91667  0.45833
E96   E   0.45833  0.95833  0.41667
E97   E   0.54167  0.04167  0.58333
E98   E   0.54167  0.08333  0.54167
E99   E   0.54167  0.16667  0.70833
E100  E   0.54167  0.20833  0.66667
E101  E   0.54167  0.54167  0.08333
E102  E   0.54167  0.58333  0.04167
E103  E   0.54167  0.66667  0.20833
E104  E   0.54167  0.70833  0.16667
E105  E   0.54167  0.04167  0.58333
E106  E   0.54167  0.08333  0.54167
E107  E   0.54167  0.16667  0.70833
E108  E   0.54167  0.20833  0.66667
E109  E   0.54167  0.54167  0.08333
E110  E   0.54167  0.58333  0.04167
E111  E   0.54167  0.66667  0.20833
E112  E   0.54167  0.70833  0.16667
E113  E   0.58333  0.04167  0.54167
E114  E   0.58333  0.04167  0.54167
E115  E   0.58333  0.20833  0.70833
E116  E   0.58333  0.20833  0.70833
E117  E   0.58333  0.54167  0.04167
E118  E   0.58333  0.54167  0.04167
E119  E   0.58333  0.70833  0.20833
E120  E   0.58333  0.70833  0.20833
E121  E   0.66667  0.04167  0.70833
E122  E   0.66667  0.04167  0.70833
E123  E   0.66667  0.20833  0.54167
E124  E   0.66667  0.20833  0.54167
E125  E   0.66667  0.54167  0.20833
E126  E   0.66667  0.54167  0.20833
E127  E   0.66667  0.70833  0.04167
E128  E   0.66667  0.70833  0.04167
E129  E   0.70833  0.04167  0.66667
E130  E   0.70833  0.08333  0.70833
E131  E   0.70833  0.16667  0.54167
E132  E   0.70833  0.20833  0.58333
E133  E   0.70833  0.54167  0.16667
E134  E   0.70833  0.58333  0.20833
E135  E   0.70833  0.66667  0.04167
E136  E   0.70833  0.70833  0.08333
E137  E   0.70833  0.04167  0.66667
E138  E   0.70833  0.08333  0.70833
E139  E   0.70833  0.16667  0.54167
E140  E   0.70833  0.20833  0.58333
E141  E   0.70833  0.54167  0.16667
E142  E   0.70833  0.58333  0.20833
E143  E   0.70833  0.66667  0.04167
E144  E   0.70833  0.70833  0.08333
E145  E   0.79167  0.29167  0.41667
E146  E   0.79167  0.33333  0.45833
E147  E   0.79167  0.41667  0.29167
E148  E   0.79167  0.45833  0.33333
E149  E   0.79167  0.79167  0.91667
E150  E   0.79167  0.83333  0.95833
E151  E   0.79167  0.91667  0.79167
E152  E   0.79167  0.95833  0.83333
E153  E   0.79167  0.29167  0.41667
E154  E   0.79167  0.33333  0.45833
E155  E   0.79167  0.41667  0.29167
E156  E   0.79167  0.45833  0.33333
E157  E   0.79167  0.79167  0.91667
E158  E   0.79167  0.83333  0.95833
E159  E   0.79167  0.91667  0.79167
E160  E   0.79167  0.95833  0.83333
E161  E   0.83333  0.29167  0.45833
E162  E   0.83333  0.29167  0.45833
E163  E   0.83333  0.45833  0.29167
E164  E   0.83333  0.45833  0.29167
E165  E   0.83333  0.79167  0.95833
E166  E   0.83333  0.79167  0.95833
E167  E   0.83333  0.95833  0.79167
E168  E   0.83333  0.95833  0.79167
E169  E   0.91667  0.29167  0.29167
E170  E   0.91667  0.29167  0.29167
E171  E   0.91667  0.45833  0.45833
E172  E   0.91667  0.45833  0.45833
E173  E   0.91667  0.79167  0.79167
E174  E   0.91667  0.79167  0.79167
E175  E   0.91667  0.95833  0.95833
E176  E   0.91667  0.95833  0.95833
E177  E   0.95833  0.29167  0.33333
E178  E   0.95833  0.33333  0.29167
E179  E   0.95833  0.41667  0.45833
E180  E   0.95833  0.45833  0.41667
E181  E   0.95833  0.79167  0.83333
E182  E   0.95833  0.83333  0.79167
E183  E   0.95833  0.91667  0.95833
E184  E   0.95833  0.95833  0.91667
E185  E   0.95833  0.29167  0.33333
E186  E   0.95833  0.33333  0.29167
E187  E   0.95833  0.41667  0.45833
E188  E   0.95833  0.45833  0.41667
E189  E   0.95833  0.79167  0.83333
E190  E   0.95833  0.83333  0.79167
E191  E   0.95833  0.91667  0.95833
E192  E   0.95833  0.95833  0.91667
loop_
